project/outputs/reanudacion_20260910/psse_suite/logs/suite_i_ultc_multi_2w_shared.log
PSSE CLI power-flow run configuration
====================================
RAW file: C:\Users\Santiago\Documents\PROYECTO FINAL DE CARRERA - MATPOWER\auditoria_psse_matpower\psse_validation_suite\suite_i_ultc_multi_2w_shared.raw
PSSE executable: C:\Program Files (x86)\PTI\PSSE34\PSSBIN\pssecmd34.exe
RAW output version: 34
Solver: FNSL
Solver option array code form: BAT_FNSL 1 1 1 1 0 1 -1 0
Solver option array values: 1 1 1 1 0 1 -1 0

Explicit solver option parameters:
- Option 1, tap adjustment flag = 1: enable transformer tap stepping adjustment.
- Option 2, area interchange adjustment flag = 1: enable area interchange adjustment using tie-line flows only.
- Option 3, phase shift adjustment flag = 1: enable phase-shifter adjustment.
- Option 4, DC tap adjustment flag = 1: enable DC tap adjustment.
- Option 5, switched shunt adjustment flag = 0: disable switched-shunt adjustment.
- Option 6, flat start flag = 1: flat start.
- Option 7, VAR limit flag = -1: ignore generator reactive power limits.
- Option 8, non-divergent solution flag = 0: disable non-divergent Newton solution.

Additional explicit solver parameters:
- RAW GENERAL, THRSHZ=0.0001: set with BAT_SOLUTION_PARAMETERS_4 REALAR(11).
- RAW NEWTON, ITMXN=100: set with BAT_SOLUTION_PARAMETERS_4 INTGAR(2).
- RAW NEWTON, VCTOLV=0.00001: set with BAT_SOLUTION_PARAMETERS_4 REALAR(18).
- RAW ADJUST, MXTPSS=20: set with BAT_SOLUTION_PARAMETERS_4 INTGAR(4).
- RAW SOLVER line applied to BAT_FNSL option array: SOLVER, FNSL, ACTAPS=1, SWSHNT=0, FLATST=1, VARLIM=-1

Generated PSSE response commands:
  BAT_READ 0 "C:\Users\Santiago\Documents\PROYECTO FINAL DE CARRERA - MATPOWER\auditoria_psse_matpower\psse_validation_suite\suite_i_ultc_multi_2w_shared.raw"
  BAT_SOLUTION_PARAMETERS_4 100 100 20 20 10 1.6 1.6 1 0.0001 1 0.1 1 1E-05 5 0.7 0.0001 0.005 1 0.05 0.99 0.99 0.1 1E-05 100
  BAT_FNSL 1 1 1 1 0 1 -1 0
  BAT_LAMP 0 1
  BAT_POUT 0 1
  BAT_LOUT 0 1
  BAT_VCHK 0 1 0.95 1.05
  BAT_RATE_2 0 1 1 1 1 1 100.0
  BAT_REGB 0 1
  BAT_OUTS 0 1
  BAT_SHNT 0 1 1
  BAT_LIST 0 1 1 0
  BAT_LIST 0 1 2 0
  BAT_LIST 0 1 3 0
  BAT_LIST 0 1 4 0
  BAT_LIST 0 1 5 0
  BAT_LIST 0 1 6 0
  BAT_LIST 0 1 7 0
  BAT_LIST 0 1 10 0
  BAT_LIST 0 1 18 0
  BAT_LIST 0 1 20 0
  BAT_LIST 0 1 27 0
  BAT_LIST 0 1 28 0
  BAT_AREA_2 0 1 2
  BAT_ZONE_2 0 1 2
  BAT_WRITERAWVERSION '34' 0 "C:\Users\Santiago\Documents\PROYECTO FINAL DE CARRERA - MATPOWER\outputs\reanudacion_20260910\psse_suite\solved_raw\suite_i_ultc_multi_2w_shared_solved.raw"
  BAT_SAVE "C:\Users\Santiago\Documents\PROYECTO FINAL DE CARRERA - MATPOWER\outputs\reanudacion_20260910\psse_suite\suite_i_ultc_multi_2w_shared.sav"
  STOP

PSSE console output
===================


 PSS(R)E Version 34
 Copyright (c) 1976-2026
 Siemens Industry, Inc.,
 Power Technologies International                            (PTI)
 This program is a confidential  unpublished  work  created  and  first
 licensed in 1976.  It is a trade secret which is the property of  PTI.
 All use,  disclosure,  and/or reproduction not specifically authorized
 by  PTI  is prohibited.   This  program is protected  under  copyright
 laws  of  non-U.S.  countries  and  by  application  of  international
 treaties.  All  Rights  Reserved  Under  The  Copyright  Laws.


           SIEMENS POWER TECHNOLOGIES INTERNATIONAL

      50000 BUS POWER SYSTEM SIMULATOR--PSS(R)E-34.9.3

             INITIATED ON THU, SEP 10 2026  11:22

 ACTIVITY? 
 Reading IC, SBASE, REV, XFRRAT, NXFRAT, BASFRQ...

 Reading two line case heading...

 Reading system-wide data...

 Reading bus data...

 Reading load data...

 Reading fixed bus shunt data...

 Reading generator data...

 Messages for machine "1" at bus 1 [SRC230      230.00]:   (002226)
 Error: Invalid ZSORCE reactance: .00000; set to 1.00000   (002230)

 Reading non-transformer branch data...

 Reading system switching device data...

 Reading transformer data...

 Reading area interchange data...

 Reading two-terminal dc line data...

 Reading VSC dc line data...

 Reading transformer impedance correction data...

 Reading multi-terminal dc line data...

 Reading multi-section line data...

 Reading zone name data...

 Reading inter-area transfer data...

 Reading owner name data...

 Reading FACTS device data...

 Reading switched shunt data...

 Reading GNE device data...

 Reading induction machine data...

 Reading substation data...
 Batch command complete.
 : 
 No power flow solution parameters changed
 Batch command complete.
 : 
 Ordering network...
 Diagonals = 3   Off-diagonals = 2   Maximum size = 4

  ITER       DELTAP      BUS         DELTAQ      BUS        DELTA/V/      BUS       DELTAANG      BUS
   0         1.2000(      4     )    0.5500(      4     )
                                                             0.06900(      4     )   0.11690(      4     )
   1         0.1285(      4     )    0.0551(      4     )
                                                             0.01393(      4     )   0.01045(      4     )
   2         0.0034(      4     )    0.0011(      4     )
                                                             0.00029(      4     )   0.00023(      4     )

 TAP RATIOS ADJUSTED:
 X------ ADJUSTABLE SIDE ------X  X------------ TO -------------X CKT   OLD       NEW       CHANGE
      2     [TAPA115     115.00]       1     [SRC230      230.00]  1  1.00000   1.05000    0.05000
      3     [TAPB115     115.00]       1     [SRC230      230.00]  1  1.00000   1.05000    0.05000

 2 tap ratios adjusted

   3         0.0045(      3     )    0.3869(      3     )
                                                             0.05747(      4     )   0.00604(      4     )
   4         0.0110(      4     )    0.0224(      2     )
                                                             0.00310(      4     )   0.00095(      4     )
   5         0.0001(      4     )    0.0001(      2     )


 Reached tolerance in 5 iterations

 Largest mismatch:      0.01 MW      0.00 Mvar      0.01 MVA at bus 4 [SHARED115   115.00]
 System total absolute mismatch:                    0.02 MVA

 SWING BUS SUMMARY:
   BUS#-SCT X-- NAME --X BASKV      PGEN     PMAX    PMIN      QGEN     QMAX    QMIN
      1     SRC230      230.00     152.5    400.0     0.0      90.1    400.0  -400.0
 Batch command complete.
 :                                         PTI INTERACTIVE POWER SYSTEM SIMULATOR--PSS(R)E     THU, SEP 10 2026  11:22
                         SUITE_I_ULTC_MULTI_2W_SHARED                                     %MVA FOR TRANSFORMERS
                         TWO TWO-WINDING TAP CONTROLLERS REGULATE THE SAME REMOTE BUS     % I  FOR NON-TRANSFORMER BRANCHES

 X--------- FROM BUS --------X AREA  VOLT            GEN    LOAD    SHUNT  X------------ TO BUS ------------X                     TRANSFORMER            RATING
   BUS#-SCT X-- NAME --X BASKV ZONE  PU/KV  ANGLE  MW/MVAR MW/MVAR MW/MVAR   BUS#-SCT X-- NAME --X BASKV AREA CKT   MW    MVAR   RATIO   ANGLE   AMPS   %  SET 1

      1     SRC230      230.00    1 1.0000    0.0   152.5      0.0     0.0 -------------------------------------------------------------------------------------
                                  1 230.00           90.1R     0.0    -0.0      2     TAPA115     115.00    1  1    76.2   45.1 1.000UN           222  35   250M
                                                                                3     TAPB115     115.00    1  1    76.2   45.1 1.000UN           222  35   250M
      2     TAPA115     115.00    1 0.9975   -4.3     0.0     15.0     0.0 -------------------------------------------------------------------------------------
                                  1 114.72            0.0      6.0    -0.0      1     SRC230      230.00    1  1   -75.5  -37.2 1.050RG           423  34   250M
                                                                                4     SHARED115   115.00    1  1    60.5   31.2                   342  27  1255A
      3     TAPB115     115.00    1 0.9975   -4.3     0.0     15.0     0.0 -------------------------------------------------------------------------------------
                                  1 114.72            0.0      6.0    -0.0      1     SRC230      230.00    1  1   -75.5  -37.2 1.050RG           423  34   250M
                                                                                4     SHARED115   115.00    1  1    60.5   31.2                   342  27  1255A
      4     SHARED115   115.00    1 0.9675   -7.0     0.0    120.0     0.0 -------------------------------------------------------------------------------------
                                  1 111.26            0.0     55.0    -0.0      2     TAPA115     115.00    1  1   -60.0  -27.5                   342  27  1255A
                                                                                3     TAPB115     115.00    1  1   -60.0  -27.5                   342  27  1255A

 Output completed
 Batch command complete.
 :      PTI INTERACTIVE POWER SYSTEM SIMULATOR--PSS(R)E     THU, SEP 10 2026  11:22
 SUITE_I_ULTC_MULTI_2W_SHARED                                             RATING   %MVA FOR TRANSFORMERS
 TWO TWO-WINDING TAP CONTROLLERS REGULATE THE SAME REMOTE BUS             SET  1   % I  FOR NON-TRANSFORMER BRANCHES

 BUS      1     SRC230      230.00 CKT     MW     MVAR     MVA   % 1.0000PU    0.00  X--- LOSSES ---X X---- AREA -----X X---- ZONE -----X      1
  FROM GENERATION                        152.5    90.1R  177.1 177 230.00KV               MW     MVAR    1                 1
  TO      2     TAPA115     115.00  1     76.2    45.1    88.6  35 1.0000UN              0.78    7.84    1                 1
  TO      3     TAPB115     115.00  1     76.2    45.1    88.6  35 1.0000UN              0.78    7.84    1                 1

 BUS      2     TAPA115     115.00 CKT     MW     MVAR     MVA   % 0.9975PU   -4.33  X--- LOSSES ---X X---- AREA -----X X---- ZONE -----X      2
                                                                   114.72KV               MW     MVAR    1                 1
  TO LOAD-PQ                              15.0     6.0    16.2
  TO      1     SRC230      230.00  1    -75.5   -37.2    84.1  34 1.0500RG              0.78    7.84    1                 1
  TO      4     SHARED115   115.00  1     60.5    31.2    68.0  27                       0.47    3.72    1                 1

 BUS      3     TAPB115     115.00 CKT     MW     MVAR     MVA   % 0.9975PU   -4.33  X--- LOSSES ---X X---- AREA -----X X---- ZONE -----X      3
                                                                   114.72KV               MW     MVAR    1                 1
  TO LOAD-PQ                              15.0     6.0    16.2
  TO      1     SRC230      230.00  1    -75.5   -37.2    84.1  34 1.0500RG              0.78    7.84    1                 1
  TO      4     SHARED115   115.00  1     60.5    31.2    68.0  27                       0.47    3.72    1                 1

 BUS      4     SHARED115   115.00 CKT     MW     MVAR     MVA   % 0.9675PU   -7.02  X--- LOSSES ---X X---- AREA -----X X---- ZONE -----X      4
                                                                   111.26KV               MW     MVAR    1                 1
  TO LOAD-PQ                             120.0    55.0   132.0
  TO      2     TAPA115     115.00  1    -60.0   -27.5    66.0  27                       0.47    3.72    1                 1
  TO      3     TAPB115     115.00  1    -60.0   -27.5    66.0  27                       0.47    3.72    1                 1

 Output completed
 Batch command complete.
 :                                         PTI INTERACTIVE POWER SYSTEM SIMULATOR--PSS(R)E     THU, SEP 10 2026  11:22
                         SUITE_I_ULTC_MULTI_2W_SHARED                                     %MVA FOR TRANSFORMERS
                         TWO TWO-WINDING TAP CONTROLLERS REGULATE THE SAME REMOTE BUS     % I  FOR NON-TRANSFORMER BRANCHES

 X--------- FROM BUS --------X AREA  VOLT            GEN    LOAD    SHUNT  X------------ TO BUS ------------X                        TRANSFORMER     RATING
   BUS#-SCT X-- NAME --X BASKV ZONE  PU/KV  ANGLE  MW/MVAR MW/MVAR MW/MVAR   BUS#-SCT X-- NAME --X BASKV AREA CKT    MW     MVAR    RATIO   ANGLE   %  SET 1

      1     SRC230      230.00    1 1.0000    0.0   152.5      0.0     0.0 ---------------------------------------------------------------------------------
                                  1 230.00           90.1R     0.0    -0.0      2     TAPA115     115.00    1  1     76.2    45.1  1.000UN          35   250
                                                                                3     TAPB115     115.00    1  1     76.2    45.1  1.000UN          35   250
      2     TAPA115     115.00    1 0.9975   -4.3     0.0     15.0     0.0 ---------------------------------------------------------------------------------
                                  1 114.72            0.0      6.0    -0.0      1     SRC230      230.00    1  1    -75.5   -37.2  1.050RG          34   250
                                                                                4     SHARED115   115.00    1  1     60.5    31.2                   27   250
      3     TAPB115     115.00    1 0.9975   -4.3     0.0     15.0     0.0 ---------------------------------------------------------------------------------
                                  1 114.72            0.0      6.0    -0.0      1     SRC230      230.00    1  1    -75.5   -37.2  1.050RG          34   250
                                                                                4     SHARED115   115.00    1  1     60.5    31.2                   27   250
      4     SHARED115   115.00    1 0.9675   -7.0     0.0    120.0     0.0 ---------------------------------------------------------------------------------
                                  1 111.26            0.0     55.0    -0.0      2     TAPA115     115.00    1  1    -60.0   -27.5                   27   250
                                                                                3     TAPB115     115.00    1  1    -60.0   -27.5                   27   250

 Output completed
 Batch command complete.
 :      PTI INTERACTIVE POWER SYSTEM SIMULATOR--PSS(R)E     THU, SEP 10 2026  11:22
 SUITE_I_ULTC_MULTI_2W_SHARED
 TWO TWO-WINDING TAP CONTROLLERS REGULATE THE SAME REMOTE BUS

 BUSES WITH VOLTAGE GREATER THAN 1.0500:

   BUS#-SCT X-- NAME --X BASKV AREA  V(PU)  V(KV)      BUS#-SCT X-- NAME --X BASKV AREA  V(PU)  V(KV)

                                            * NONE *


 BUSES WITH VOLTAGE LESS THAN 0.9500:

   BUS#-SCT X-- NAME --X BASKV AREA  V(PU)  V(KV)      BUS#-SCT X-- NAME --X BASKV AREA  V(PU)  V(KV)

                                            * NONE *

 Output completed
 Batch command complete.
 :      PTI INTERACTIVE POWER SYSTEM SIMULATOR--PSS(R)E     THU, SEP 10 2026  11:22
 SUITE_I_ULTC_MULTI_2W_SHARED
 TWO TWO-WINDING TAP CONTROLLERS REGULATE THE SAME REMOTE BUS

 SUBSYSTEM LOADING CHECK (INCLUDED: LINES; BREAKERS AND SWITCHES; TRANSFORMERS) (EXCLUDED: NONE)
 LOADINGS ABOVE 100.0 % OF RATING SET 1 (MVA FOR TRANSFORMERS, CURRENT FOR NON-TRANSFORMER BRANCHES):

 X----------- FROM BUS ------------X X------------ TO BUS -------------X
   BUS#-SCT X-- NAME --X BASKV  AREA   BUS#-SCT X-- NAME --X BASKV  AREA CKT LOADING   RATE1 PERCENT

                                   * NONE *

 Output completed
 Batch command complete.
 :      PTI INTERACTIVE POWER SYSTEM SIMULATOR--PSS(R)E     THU, SEP 10 2026  11:22
 SUITE_I_ULTC_MULTI_2W_SHARED
 TWO TWO-WINDING TAP CONTROLLERS REGULATE THE SAME REMOTE BUS

                                 X--VOLTAGE--X     X--SCHEDULED--X  X--VIOLATION--X
 X------ REGULATED  BUS -------X   P.U.    KV          VOLTAGE        P.U.     KV   X----------------------------- CONTROLLING  EQUIPMENT -----------------------------X
      1     [SRC230      230.00] 1.00000 230.0         1.00000                      LOCAL  GENERATION      1     [SRC230      230.00]

      4     [SHARED115   115.00] 0.96749 111.3     0.96000 0.99000                  XFRMER CKT 1  BUS      1     [SRC230      230.00] TO      2     [TAPA115     115.00]
                                                   0.96000 0.99000                  XFRMER CKT 1  BUS      1     [SRC230      230.00] TO      3     [TAPB115     115.00]

 Output completed
 Batch command complete.
 :      PTI INTERACTIVE POWER SYSTEM SIMULATOR--PSS(R)E     THU, SEP 10 2026  11:22
 SUITE_I_ULTC_MULTI_2W_SHARED
 TWO TWO-WINDING TAP CONTROLLERS REGULATE THE SAME REMOTE BUS

 OUT-OF-SERVICE BRANCHES:

 X----------- FROM BUS -----------X  X------------ TO BUS ------------X
   BUS#-SCT X-- NAME --X BASKV AREA    BUS#-SCT X-- NAME --X BASKV AREA  CKT

                                  ** NONE **


 OUT-OF-SERVICE THREE-WINDING TRANSFORMERS:

                                          X-------- WINDING 1 BUS ---------X X-------- WINDING 2 BUS ---------X X-------- WINDING 3 BUS ---------X
 X---------- TRANSFORMER NAME ----------X   BUS#-SCT X-- NAME --X BASKV AREA   BUS#-SCT X-- NAME --X BASKV AREA   BUS#-SCT X-- NAME --X BASKV AREA CKT

                                  ** NONE **


 ISOLATED BUSES:

 X-------------- BUS --------------X  X-------------- BUS --------------X  X-------------- BUS --------------X
   BUS#-SCT X-- NAME --X BASKV  AREA    BUS#-SCT X-- NAME --X BASKV  AREA    BUS#-SCT X-- NAME --X BASKV  AREA

                                  ** NONE **


 OUT-OF-SERVICE PLANTS:

 X-------------- BUS --------------X  X-------------- BUS --------------X  X-------------- BUS --------------X
   BUS#-SCT X-- NAME --X BASKV  AREA    BUS#-SCT X-- NAME --X BASKV  AREA    BUS#-SCT X-- NAME --X BASKV  AREA

                                  ** NONE **


 OUT-OF-SERVICE MACHINES AT IN-SERVICE PLANTS:

 X--------------- BUS ---------------X  X--------------- BUS ---------------X  X--------------- BUS ---------------X
   BUS#-SCT X-- NAME --X BASKV ID AREA    BUS#-SCT X-- NAME --X BASKV ID AREA    BUS#-SCT X-- NAME --X BASKV ID AREA

                                  ** NONE **


 OUT-OF-SERVICE INDUCTION MACHINES AT IN-SERVICE BUSES:

 X--------------- BUS ---------------X  X--------------- BUS ---------------X  X--------------- BUS ---------------X
   BUS#-SCT X-- NAME --X BASKV ID AREA    BUS#-SCT X-- NAME --X BASKV ID AREA    BUS#-SCT X-- NAME --X BASKV ID AREA

                                  ** NONE **


 OUT-OF-SERVICE LOADS AT IN-SERVICE BUSES:

 X--------------- BUS ---------------X  X--------------- BUS ---------------X  X--------------- BUS ---------------X
   BUS#-SCT X-- NAME --X BASKV ID AREA    BUS#-SCT X-- NAME --X BASKV ID AREA    BUS#-SCT X-- NAME --X BASKV ID AREA

                                  ** NONE **


 OUT-OF-SERVICE FIXED SHUNTS AT IN-SERVICE BUSES:

 X--------------- BUS ---------------X  X--------------- BUS ---------------X  X--------------- BUS ---------------X
   BUS#-SCT X-- NAME --X BASKV ID AREA    BUS#-SCT X-- NAME --X BASKV ID AREA    BUS#-SCT X-- NAME --X BASKV ID AREA

                                  ** NONE **


 BLOCKED TWO-TERMINAL DC LINES:

 X-2TERM DC-X  X-------- RECTIFIER --------X  X-------- INVERTER ---------X
 X-- NAME --X    BUS#-SCT X-- NAME --X BASKV    BUS#-SCT X-- NAME --X BASKV

                                  ** NONE **


 BLOCKED MULTI-TERMINAL DC LINES:

 X-MTERM DC-X  X-------- CONVERTER --------X  X-------- CONVERTER --------X  X-------- CONVERTER --------X
 X-- NAME --X    BUS#-SCT X-- NAME --X BASKV    BUS#-SCT X-- NAME --X BASKV    BUS#-SCT X-- NAME --X BASKV

                                  ** NONE **


 BLOCKED VSC DC LINES:

 X--VSC DC--X  X------ CONVERTER BUS ------X  X------ CONVERTER BUS ------X
 X-- NAME --X    BUS#-SCT X-- NAME --X BASKV    BUS#-SCT X-- NAME --X BASKV

                                  ** NONE **


 OUT-OF-SERVICE CONVERTERS AT IN-SERVICE VSC DC LINES:

 X--VSC DC--X  X------ CONVERTER BUS ------X  X------ CONVERTER BUS ------X
 X-- NAME --X    BUS#-SCT X-- NAME --X BASKV    BUS#-SCT X-- NAME --X BASKV

                                  ** NONE **


 BLOCKED FACTS CONTROL DEVICES:

 X--DEVICE--X  X------- SENDING BUS -------X  X------ TERMINAL BUS -------X
 X-- NAME --X    BUS#-SCT X-- NAME --X BASKV    BUS#-SCT X-- NAME --X BASKV

                                  ** NONE **


 OUT-OF-SERVICE GNE DEVICES:

 X--DEVICE--X  X-------- FROM BUS ---------X  X--------- TO BUS ----------X
 X-- NAME --X    BUS#-SCT X-- NAME --X BASKV    BUS#-SCT X-- NAME --X BASKV

                                  ** NONE **

 Output completed
 Batch command complete.
 :      PTI INTERACTIVE POWER SYSTEM SIMULATOR--PSS(R)E     THU, SEP 10 2026  11:22
 SUITE_I_ULTC_MULTI_2W_SHARED                                              SHUNT
 TWO TWO-WINDING TAP CONTROLLERS REGULATE THE SAME REMOTE BUS            SUMMARY

                                                 N O M I N A L
   BUS#-SCT X-- NAME --X BASKV CODE ID STAT       MW      MVAR  VOLTAGE  TYPE    MODE ADJM     BMIN      BMAX

                                    * NONE *

 Output completed
 Batch command complete.
 :      PTI INTERACTIVE POWER SYSTEM SIMULATOR--PSS(R)E     THU, SEP 10 2026  11:22
 SUITE_I_ULTC_MULTI_2W_SHARED                                     SYSTEM SUMMARY
 TWO TWO-WINDING TAP CONTROLLERS REGULATE THE SAME REMOTE BUS

 ---------------------BUSES----------------------        -----GENERATION----- ----SHUNTS----- -IND MACHS- FACTS   GNE
  TOTAL  PQ<>0.  PQ=0.  PE/E   PE/Q  SWING  OTHER  LOADS PLANTS MACHNS   WIND  FIXED SWITCHED GENS MOTORS  DEVS  DEVS
      4      3      0      0      0      1      0      3      1      1      0      0      0      0      0     0     0
 ------------------AC BRANCHES------------------- 3WIND MULTI-SECTION ---DC LINES--                    AREA X------- SWING BUSES -------X
  TOTAL    RXB     RX    RXT   RX=0.    IN    OUT XFORM  LINES SECTNS 2TRM MTRM VSC AREAS ZONES OWNRS TRANS      1     SRC230      230.00
      4      0      2      2      0      4      0     0      0      0    0    0   0     1     1     1     0
      ----GENERATION---- INDUCTION                                       GNE
 TOTAL   SYNCHR  INDUCTN   MOTORS   PQLOAD   I LOAD   Y LOAD   SHUNTS  DEVICES CHARGING   LOSSES    SWING
 MW       152.5      0.0      0.0    150.0      0.0      0.0      0.0      0.0      0.0      2.5    152.5
 MVAR      90.1      0.0      0.0     67.0      0.0      0.0     -0.0      0.0      0.0     23.1     90.1

 TOTAL MISMATCH =    0.02 MVA X--------- AT BUS ----------X   THRSHZ  PQBRAK BLOWUP  SBASE MXTPSS
  MAX. MISMATCH =    0.01 MVA      4     SHARED115   115.00  0.000100  0.700   5.00 100.00   20
   HIGH VOLTAGE = 1.00000 PU       1     SRC230      230.00   ADJTHR  ACCTAP TAPLIM SWVBND MXSWIM
   LOW  VOLTAGE = 0.96749 PU       4     SHARED115   115.00   0.0050  1.0000 0.0500  100.0   10

 X------ SOLV AND MSLV ------X  X----------------- NEWTON ------------------X  X----- TYSL -----X
  ACCP  ACCQ  ACCM   TOL  ITER  ACCN  TOLN  VCTOLQ  VCTOLV ITER  DVLIM NDVFCT  ACCTY    TOL  ITER
 1.600 1.600 1.000 0.00010 100  1.00 0.1000 0.1000 0.000010 100 0.9900 0.9900  1.000 0.000010  20
     PTI INTERACTIVE POWER SYSTEM SIMULATOR--PSS(R)E     THU, SEP 10 2026  11:22
 SUITE_I_ULTC_MULTI_2W_SHARED                                            WORST
 TWO TWO-WINDING TAP CONTROLLERS REGULATE THE SAME REMOTE BUS         MISMATCHES
   BUS#-SCT X-- NAME --X BASKV       MW       MVAR       MVA
      4     SHARED115   115.00     -0.01     -0.00      0.01
      2     TAPA115     115.00      0.00     -0.01      0.01
      3     TAPB115     115.00      0.00     -0.01      0.01
     PTI INTERACTIVE POWER SYSTEM SIMULATOR--PSS(R)E     THU, SEP 10 2026  11:22
 SUITE_I_ULTC_MULTI_2W_SHARED                                         RATING SET
 TWO TWO-WINDING TAP CONTROLLERS REGULATE THE SAME REMOTE BUS        UTILIZATION
 RATING SET  -NAME-  X---------DESCRIPTION----------X  # NON-ZERO RATINGS
      1      RATE1   RATING SET 1                                 4
      2      RATE2   RATING SET 2                                 4
      3      RATE3   RATING SET 3                                 4
      4      RATE4   RATING SET 4                                 0
      5      RATE5   RATING SET 5                                 0
      6      RATE6   RATING SET 6                                 0
      7      RATE7   RATING SET 7                                 0
      8      RATE8   RATING SET 8                                 0
      9      RATE9   RATING SET 9                                 0
     10      RATE10  RATING SET 10                                0
     11      RATE11  RATING SET 11                                0
     12      RATE12  RATING SET 12                                0

 Output completed
 Batch command complete.
 :      PTI INTERACTIVE POWER SYSTEM SIMULATOR--PSS(R)E     THU, SEP 10 2026  11:22
 SUITE_I_ULTC_MULTI_2W_SHARED                                           BUS DATA
 TWO TWO-WINDING TAP CONTROLLERS REGULATE THE SAME REMOTE BUS
                                           S H U N T S                                 X--- NORMAL --X  X- EMERGENCY -X
   BUS#-SCT X-- NAME --X BASKV CODE LOADS FIXED SWITCHED  VOLT   ANGLE AREA ZONE OWNER   VMAX    VMIN     VMAX    VMIN
      1     SRC230      230.00   3    0     0      0    1.00000    0.0    1    1    1  1.10000 0.90000  1.10000 0.90000
      2     TAPA115     115.00   1    1     0      0    0.99753   -4.3    1    1    1  1.10000 0.90000  1.10000 0.90000
      3     TAPB115     115.00   1    1     0      0    0.99753   -4.3    1    1    1  1.10000 0.90000  1.10000 0.90000
      4     SHARED115   115.00   1    1     0      0    0.96749   -7.0    1    1    1  1.10000 0.90000  1.10000 0.90000

 Output completed
 Batch command complete.
 :      PTI INTERACTIVE POWER SYSTEM SIMULATOR--PSS(R)E     THU, SEP 10 2026  11:22
 SUITE_I_ULTC_MULTI_2W_SHARED                                          SWITCHED
 TWO TWO-WINDING TAP CONTROLLERS REGULATE THE SAME REMOTE BUS         SHUNT DATA
                                   S ADJ                                                                       X-------- REGULATED BUS ---------X X--FACTS/--X
   BUS#-SCT X-- NAME --X BASKV MOD T METH VHI    VLO     SHUNT  X-------X X-------X X-------X X-------X  PCT Q   BUS#-SCT X-- NAME --X BASKV NODE X-VSC NAME-X

                                    * NONE *

 Output completed
 Batch command complete.
 :      PTI INTERACTIVE POWER SYSTEM SIMULATOR--PSS(R)E     THU, SEP 10 2026  11:22
 SUITE_I_ULTC_MULTI_2W_SHARED                                         GENERATING
 TWO TWO-WINDING TAP CONTROLLERS REGULATE THE SAME REMOTE BUS         PLANT DATA
                                                                                       X-------- REGULATED BUS ---------X
   BUS#-SCT X-- NAME --X BASKV COD MCNS PGEN   QGEN   QMAX   QMIN VSCHED  VACT.  PCT Q   BUS#-SCT X-- NAME --X BASKV NODE
      1     SRC230      230.00  3   1  152.5   90.1  400.0 -400.0 1.0000 1.0000  100.0      1     SRC230      230.00    0

 Output completed
 Batch command complete.
 :      PTI INTERACTIVE POWER SYSTEM SIMULATOR--PSS(R)E     THU, SEP 10 2026  11:22
 SUITE_I_ULTC_MULTI_2W_SHARED                                          GENERATOR
 TWO TWO-WINDING TAP CONTROLLERS REGULATE THE SAME REMOTE BUS          UNIT DATA
   BUS#-SCT X-- NAME --X BASKV CD ID ST  PGEN   QGEN   QMAX   QMIN   PMAX   PMIN  OWN FRACT  OWN FRACT  MBASE  Z S O R C E    X T R A N    GENTAP WMOD  WPF
      1     SRC230      230.00  3 1  1  152.5   90.1  400.0 -400.0  400.0    0.0    1 1.000             100.0 0.0000 1.0000

 Output completed
 Batch command complete.
 :      PTI INTERACTIVE POWER SYSTEM SIMULATOR--PSS(R)E     THU, SEP 10 2026  11:22
 SUITE_I_ULTC_MULTI_2W_SHARED                                        BRANCH DATA
 TWO TWO-WINDING TAP CONTROLLERS REGULATE THE SAME REMOTE BUS
 X-------- FROM BUS ---------X  X--------- TO BUS ----------X                                Z S
   BUS#-SCT X-- NAME --X BASKV    BUS#-SCT X-- NAME --X BASKV CKT   R (PU)   X (PU)   B (PU) I T  RATE1  RATE2  RATE3 LENGTH OWN1 FRAC1 OWN2 FRAC2 OWN3 FRAC3 OWN4 FRAC4
      2     TAPA115     115.00*      4     SHARED115   115.00  1   0.01000  0.08000  0.00000   1  250.0  250.0  250.0    0.0    1 1.000
      3     TAPB115     115.00*      4     SHARED115   115.00  1   0.01000  0.08000  0.00000   1  250.0  250.0  250.0    0.0    1 1.000

 Output completed
 Batch command complete.
 :      PTI INTERACTIVE POWER SYSTEM SIMULATOR--PSS(R)E     THU, SEP 10 2026  11:22
 SUITE_I_ULTC_MULTI_2W_SHARED                                        BRANCH DATA
 TWO TWO-WINDING TAP CONTROLLERS REGULATE THE SAME REMOTE BUS
 X-------- FROM BUS ---------X  X--------- TO BUS ----------X                                Z S
   BUS#-SCT X-- NAME --X BASKV    BUS#-SCT X-- NAME --X BASKV CKT   R (PU)   X (PU)   B (PU) I T  RATE1  RATE2  RATE3 LENGTH OWN1 FRAC1 OWN2 FRAC2 OWN3 FRAC3 OWN4 FRAC4
      2     TAPA115     115.00*      4     SHARED115   115.00  1   0.01000  0.08000  0.00000   1  250.0  250.0  250.0    0.0    1 1.000
      3     TAPB115     115.00*      4     SHARED115   115.00  1   0.01000  0.08000  0.00000   1  250.0  250.0  250.0    0.0    1 1.000
      4     SHARED115   115.00       2     TAPA115     115.00* 1   0.01000  0.08000  0.00000   1  250.0  250.0  250.0    0.0    1 1.000
      4     SHARED115   115.00       3     TAPB115     115.00* 1   0.01000  0.08000  0.00000   1  250.0  250.0  250.0    0.0    1 1.000

 Output completed
 Batch command complete.
 :      PTI INTERACTIVE POWER SYSTEM SIMULATOR--PSS(R)E     THU, SEP 10 2026  11:22
 SUITE_I_ULTC_MULTI_2W_SHARED
 TWO TWO-WINDING TAP CONTROLLERS REGULATE THE SAME REMOTE BUS       DC LINE DATA

                                    * NONE *

 Output completed
 Batch command complete.
 :      PTI INTERACTIVE POWER SYSTEM SIMULATOR--PSS(R)E     THU, SEP 10 2026  11:22
 SUITE_I_ULTC_MULTI_2W_SHARED                                          LOAD DATA
 TWO TWO-WINDING TAP CONTROLLERS REGULATE THE SAME REMOTE BUS
   BUS#-SCT X-- NAME --X BASKV ID CD ST   PSI     MVA-LOAD      CUR-LOAD      Y - LOAD  AREA ZONE OWNER SCALE INTRPT     DGEN-MVA  DGEN-FLAG
      2     TAPA115     115.00 1   1 1  1.000   15.0    6.0    0.0    0.0    0.0    0.0    1    1    1   YES     NO     0.0    0.0     OFF
      3     TAPB115     115.00 1   1 1  1.000   15.0    6.0    0.0    0.0    0.0    0.0    1    1    1   YES     NO     0.0    0.0     OFF
      4     SHARED115   115.00 1   1 1  1.000  120.0   55.0    0.0    0.0    0.0    0.0    1    1    1   YES     NO     0.0    0.0     OFF

 Output completed
 Batch command complete.
 :      PTI INTERACTIVE POWER SYSTEM SIMULATOR--PSS(R)E     THU, SEP 10 2026  11:22
 SUITE_I_ULTC_MULTI_2W_SHARED                                      FACTS SENDING
 TWO TWO-WINDING TAP CONTROLLERS REGULATE THE SAME REMOTE BUS         END DATA
 X- DEVICE -X X------- SENDING BUS -------X X------ TERMINAL BUS -------X                                         X-------- REGULATED BUS ---------X X- MASTER -X
 X-- NAME --X   BUS#-SCT X-- NAME --X BASKV   BUS#-SCT X-- NAME --X BASKV MODE  V SET SHNTMX  PCT Q  BRDGMX OWNER   BUS#-SCT X-- NAME --X BASKV NODE X-- NAME --X

                                    * NONE *

 Output completed
 Batch command complete.
 :      PTI INTERACTIVE POWER SYSTEM SIMULATOR--PSS(R)E     THU, SEP 10 2026  11:22
 SUITE_I_ULTC_MULTI_2W_SHARED                                     FACTS TERMINAL
 TWO TWO-WINDING TAP CONTROLLERS REGULATE THE SAME REMOTE BUS        END DATA
 X- DEVICE -X X------- SENDING BUS -------X X------ TERMINAL BUS -------X
 X-- NAME --X   BUS#-SCT X-- NAME --X BASKV   BUS#-SCT X-- NAME --X BASKV MODE  PDES   QDES  VTMAX  VTMIN  VSMAX ISMAX  LINE X VSREF   SET1     SET2

                                    * NONE *

 Output completed
 Batch command complete.
 :      PTI INTERACTIVE POWER SYSTEM SIMULATOR--PSS(R)E     THU, SEP 10 2026  11:22
 SUITE_I_ULTC_MULTI_2W_SHARED                                            FIXED
 TWO TWO-WINDING TAP CONTROLLERS REGULATE THE SAME REMOTE BUS         SHUNT DATA
   BUS#-SCT X-- NAME --X BASKV ID CODE STAT       S H U N T

                                    * NONE *

 Output completed
 Batch command complete.
 :      PTI INTERACTIVE POWER SYSTEM SIMULATOR--PSS(R)E     THU, SEP 10 2026  11:22
 SUITE_I_ULTC_MULTI_2W_SHARED                                        AREA TOTALS
 TWO TWO-WINDING TAP CONTROLLERS REGULATE THE SAME REMOTE BUS         IN MW/MVAR
                 FROM ---ASSIGNED TO THE AREA---              TO                               -NET INTERCHANGE-
                GENE- FROM IND   TO IND       TO   TO BUS  GNE BUS  TO LINE     FROM     TO     TO TIE  TO TIES  DESIRED
 X-- AREA --X  RATION GENERATN   MOTORS     LOAD    SHUNT  DEVICES    SHUNT CHARGING   LOSSES    LINES  + LOADS  NET INT

    1           152.5      0.0      0.0    150.0      0.0      0.0      0.0      0.0      2.5      0.0      0.0      0.0
                 90.1      0.0      0.0     67.0     -0.0      0.0     -0.0      0.0     23.1      0.0      0.0

 COLUMN         152.5      0.0      0.0    150.0      0.0      0.0      0.0      0.0      2.5      0.0      0.0      0.0
 TOTALS          90.1      0.0      0.0     67.0      0.0      0.0      0.0      0.0     23.1      0.0      0.0

 Output completed
 Batch command complete.
 :      PTI INTERACTIVE POWER SYSTEM SIMULATOR--PSS(R)E     THU, SEP 10 2026  11:22
 SUITE_I_ULTC_MULTI_2W_SHARED                                        ZONE TOTALS
 TWO TWO-WINDING TAP CONTROLLERS REGULATE THE SAME REMOTE BUS         IN MW/MVAR
                 FROM ---ASSIGNED TO THE ZONE---              TO                               -NET INTERCHANGE-
                GENE- FROM IND   TO IND       TO   TO BUS  GNE BUS  TO LINE     FROM     TO     TO TIE  TO TIES
 X-- ZONE --X  RATION GENERATN   MOTORS     LOAD    SHUNT  DEVICES    SHUNT CHARGING   LOSSES    LINES  + LOADS

    1           152.5      0.0      0.0    150.0      0.0      0.0      0.0      0.0      2.5      0.0      0.0
                 90.1      0.0      0.0     67.0     -0.0      0.0     -0.0      0.0     23.1      0.0      0.0

 COLUMN         152.5      0.0      0.0    150.0      0.0      0.0      0.0      0.0      2.5      0.0      0.0
 TOTALS          90.1      0.0      0.0     67.0      0.0      0.0      0.0      0.0     23.1      0.0      0.0

 Output completed
 Batch command complete.
 : 
 Output completed
 Batch command complete.
 : 
 Case saved in file C:\Users\Santiago\Documents\PROYECTO FINAL DE CARRERA - MATPOWER\outputs\reanudacion_20260910\psse_suite\suite_i_ultc_multi_2w_shared.sav on THU, SEP 10 2026  11:22
 Batch command complete.
 : 